<?xml version="1.0" encoding="UTF-8"?>

<!-- generated on 2026-02-17 13:55:55.759016 by Eclipse SUMO randomTrips.py v1_26_0+0000-fa7df22d7f1
<configuration>
    <net-file value="ottawa.net.xml"/>
    <route-file value="ottawa.rou.xml"/>
    <end value="450.0"/>
    <period value="0.9"/>
</configuration>
-->

<!-- generated on 2026-02-17T13:55:55.614217-05:00 by Eclipse SUMO duarouter 1.26.0
<duarouterConfiguration xmlns:xsi="http://www.w3.org/2001/XMLSchema-instance" xsi:noNamespaceSchemaLocation="http://sumo.dlr.de/xsd/duarouterConfiguration.xsd">

    <input>
        <net-file value="ottawa.net.xml"/>
        <route-files value="trips.trips.xml"/>
    </input>

    <output>
        <output-file value="ottawa.rou.xml"/>
        <alternatives-output value="NUL"/>
    </output>

    <time>
        <begin value="0.0"/>
        <end value="450.0"/>
    </time>

    <report>
        <no-warnings value="true"/>
        <ignore-errors value="true"/>
        <no-step-log value="true"/>
    </report>

</duarouterConfiguration>
-->

<routes xmlns:xsi="http://www.w3.org/2001/XMLSchema-instance" xsi:noNamespaceSchemaLocation="http://sumo.dlr.de/xsd/routes_file.xsd">
    <vehicle id="0" depart="0.00">
        <route edges="753597132 753597130#0 753597130#1 137413788 -137413788 753597131#0 753597131#1 -753597132 -600025671 -456373012#1 -456373012#0 456570278#0 456570278#1 600025673 130335831 538113725#0 538113725#1 538113725#2 538113725#3 538113725#4 538113725#5 538113725#6 538113725#7 538113725#8 538113725#9 538113725#10 264387278 463644772#0 463644772#1 637334960 637334959 264387279#0 264387279#1 264387279#2 264387279#3 264387279#4 264387279#5 463644771#0 463644771#1 463644771#2 880435924#0 880435924#1 76421261#0 76421261#1 76421261#2 76421261#3 1283505591 -924632856#1 -924632856#0 -749667989#5 -749667989#4 -749667989#3 -749667989#2 -749667989#1 -749667989#0 749667991#0 749667991#1 749667991#2 1328264314 1283505594 490908991#0 490908991#1 305214720#0 305214720#1 880435926 76421407 539766954 587737499 76421351#0 76421351#1 76421351#2 76421351#3 520408275 600507747 397100632#0 397100632#1 397100632#2 600924754 463590451 456557762#0 456557762#1 397100634#0 397100634#1 397100634#2 397100634#3 397100634#4 475917821 456557758#0 456557758#1 456557758#2 300680024 76729091#0 76729091#1 76729042#0 76729042#1 76729042#2 76729042#3 300679865#0 300679865#1 300679865#2 76728417 76730629 300679672#0 300679672#1 300679672#2 -300679672#2 -300679672#1 -300679672#0 -76730629 -76728417 -300679865#2 -300679865#1 -300679865#0"/>
    </vehicle>
    <vehicle id="1" depart="0.90">
        <route edges="-7939295#4 -7939295#3 -7939295#2 -7939295#1 -7939295#0 7939295#0 7939295#1 7939295#2 7939295#3 7939295#4 7939295#5 538861667#0 538861667#1 538861667#2 538861667#3 8919535#0 8919535#1 76730389 313450662 504516028#0 504516028#1 435297112 600507760 313451318 1322657244 364123279 -76729328#3 -76729328#2 -76729328#1 -76729328#0"/>
    </vehicle>
    <vehicle id="2" depart="1.80">
        <route edges="76729891 313466011#0 313466011#1 600507746 130126760 397100633#0 397100633#1 397100633#2 -76729438 76844037 587737498 520408277 76421025 880435927 76420937#0 76420937#1 490908992#0 490908992#1 432365103 305214700 1328264313#0 1328264313#1 1328264313#2 436784653 1267602298 305941312#0 305941312#1 305941312#2 1266755566 1442147127 538113728 1016688285#0 1016688285#1 1016688285#2 1015917694 1015917699#0 1015917699#1 1015917699#2 1283505593 -130298108#1 -130298108#0 -1283505591 -76421261#3 -76421261#2 -76421261#1 -76421261#0 -880435924#1 -880435924#0 -463644771#2 -463644771#1 -463644771#0 -264387279#5 -264387279#4 -264387279#3 -264387279#2 -264387279#1 -264387279#0 -637334959 -637334960"/>
    </vehicle>
    <vehicle id="3" depart="2.70">
        <route edges="435297113#1 76421522#0 76421522#1 456377569 1382206874 435296020 1382206873 600507750#0 600507750#1 76842015#0 76842015#1 188954424 76421151 76421088#0 76421088#1 600507748 456377580 397100629 520408275 76843213#0 76843213#1 397100633#2 -76729438 76844037 587737498 520408277 76421025 880435927 76420937#0 76420937#1 490908992#0 490908992#1 432365103 305214700 1328264313#0 1328264313#1 1328264313#2 436784653 1267602298 305941312#0 305941312#1 305941312#2 1266755566 1442147127 538113728 1016688285#0 1016688285#1 1016688285#2 130331839#0 130331839#1 130331839#2 130298110 130298111#0 130298111#1 538113727#0 538113727#1 538113727#2 538113727#3 538113727#4 538113727#5 538113727#6 76422398#0 76422398#1 76422398#2 76422398#3 76422398#4 76422398#5 76422398#6 463836610 301043956#0 301043956#1 587750051 301043954#0 301043954#1 301043954#2 301043954#3 374618933 600025672#0 600025672#1 -600025672#1 -600025672#0 -374618933 -301043954#3 -301043954#2"/>
    </vehicle>
    <vehicle id="4" depart="3.60">
        <route edges="-300679865#0 538861662#0 538861662#1 538861662#2 76728489#0 76728489#1 76728489#2 76729795#0 76729795#1 -456557766#1 -456557766#0 -600924753 -600924752#1 -600924752#0 -505862602 -727581189 -600924751#1 -600924751#0 -76728456#3 -76728456#2 -76728456#1 -76728456#0"/>
    </vehicle>
    <vehicle id="5" depart="4.50">
        <route edges="76421007#3 76421007#4 76421007#5 187875610 -76421107 76421107 -187875610 -76421007#5 -76421007#4 -76421007#3 -76421007#2 -76421007#1 -76421007#0 -638848922#3 -638848922#2 -638848922#1 -638848922#0 -432365101 305214720#0 305214720#1 880435926 76421407 539766954 733428789 76421585 76844000#0 76844000#1 76844000#2 76841092 76841090#0 76841090#1 538861665#0 538861665#1 456377569 1382206874 435296020 471722137#0 471722137#1 83748346#1 83748346#2 83748346#3 83748346#4 83748346#5 83748346#6 83748346#7 538563924#0 538563924#1 -130207184 -130207187 -7939211#2 -7939211#1 -7939211#0 -538861666#1 7939295#0 7939295#1 7939295#2 7939295#3 7939295#4 7939295#5 -80675323#3 -80675323#2 -80675323#1 -80675323#0 7939114#0 7939114#1 538861666#0"/>
    </vehicle>
    <vehicle id="6" depart="5.40">
        <route edges="76728489#1 76728489#2 76728489#3 76728489#4 76728489#5 76421101 313466010 313466011#0 313466011#1 600507746 130126760 397100633#0 397100633#1 397100633#2 -76729438 76844037 587737498 520408277 76421025 880435927 76420937#0 76420937#1 490908992#0 490908992#1 432365103 305214700 1328264313#0 1328264313#1 1328264313#2 436784653 1267602298 305941312#0 305941312#1 305941312#2 1266755566 1442147127 538113728 1016688285#0 1016688285#1 1016688285#2 130331839#0 130331839#1 130331839#2 130298110 130298111#0 130298111#1 -130298111#1 -130298111#0"/>
    </vehicle>
    <vehicle id="7" depart="6.30">
        <route edges="76728456#1 76728456#2 76728456#3 600924751#0 600924751#1 -600924751#1 -600924751#0 -76728456#3 -76728456#2 -76728456#1 -76728456#0 -538362517 130128607 76843851#0 76843851#1 193732663 600507751 435297113#0 435297113#1 76421522#0 76421522#1 456377569 1382206874 435296020 1382206873 600507750#0 600507750#1 456377577#0 456377577#1 397100321 397100322 571851448#0 571851448#1 313469985 600025689 571851446 76421484 76422565 600025688 76842295#0 76842295#1 76421286 76421229#0 76421229#1 76421216 76422291 76421255#0 76421255#1 76422419#0 76422419#1 76422419#2 76422419#3 76422419#4 76421320#0 76421320#1 76421320#2"/>
    </vehicle>
    <vehicle id="8" depart="7.20">
        <route edges="76844066#0 76844066#1 538861663 397100634#0 397100634#1 397100634#2 397100634#3 397100634#4 475917821 456557758#0 456557758#1 456557758#2 300680024 456557754#0 456557754#1 300680025#0 300680025#1 300680025#2 76728990#0 76728990#1 76728667#0 76728667#1 76728667#2 76728667#3 538861662#0 538861662#1 538861662#2 76728489#0 76728489#1 76728489#2 76729795#0 76729795#1 -456557766#1 -456557766#0 -600924753 -600924752#1 -600924752#0 -505862602 -727581189 -600924751#1 -600924751#0 -76728456#3 -76728456#2 -76728456#1 -76728456#0 -538362517 130128607 76843851#0 76843851#1 193732663 600507751 435297113#0 435297113#1 76421522#0 76421522#1 456377569 1382206874 435296020 1382206873"/>
    </vehicle>
    <vehicle id="9" depart="8.10">
        <route edges="-638848922#2 -638848922#1 -638848922#0 -432365101 305214720#0 305214720#1 880435926 76421407 539766954 733428789 76421585 76844000#0 76844000#1 76844000#2 76841092 435297114 538861664 504516027 305214821 435297112 600507760 313451318 1322657244 364123279 467420374#0 467420374#1 467420374#2 -682982522#2"/>
    </vehicle>
    <vehicle id="10" depart="9.00">
        <route edges="76728456#3 600924751#0 600924751#1 727581189 505862602 600924752#0 600924752#1 600924753 456557766#0 456557766#1 76730149 76421101 313466010 313466011#0 313466011#1 600507746 130126760 397100633#0 397100633#1 397100633#2 -76729438 76844037 587737498 520408277 76421025 880435927 76420937#0 76420937#1 490908992#0 490908992#1 432365103 305214700 1328264313#0 1328264313#1 1328264313#2 76422139#0 76422139#1"/>
    </vehicle>
    <vehicle id="11" depart="9.90">
        <route edges="538113727#5 538113727#6 726999887#0 726999887#1 727563622#0 727563622#1 76421201#0 76421201#1 76421201#2 1266773279 1266773278#0 1266773278#1 1266773282 1266773281 637334960 637334959 264387279#0 264387279#1 264387279#2 264387279#3 264387279#4 264387279#5 463644771#0 463644771#1 463644771#2 880435924#0 880435924#1 76421261#0 76421261#1 76421261#2 76421261#3 1283505591 -924632856#1 -924632856#0 -749667989#5 -749667989#4 -749667989#3 -749667989#2 -749667989#1 -749667989#0 749667991#0 749667991#1 749667991#2 1328264314 1283505594 490908991#0 490908991#1 305214720#0 305214720#1 880435926 76421407 539766954 733428789 76421585 76844000#0 76844000#1 76844000#2 76841092 76841090#0 76841090#1 538861665#0 538861665#1 456377569 1382206874 435296020 471722137#0 471722137#1 83748346#1 83748346#2 83748346#3 83748346#4 83748346#5 83748346#6 83748346#7 538563924#0 538563924#1 -130207184 -130207187 -7939211#2 -7939211#1 -7939211#0 -538861666#1 7939295#0 7939295#1 7939295#2 7939295#3 7939295#4 7939295#5"/>
    </vehicle>
    <vehicle id="12" depart="10.80">
        <route edges="305214699 1300505854#0 1300505854#1 1300505854#2 432365102 1328264314 1283505594 490908991#0 490908991#1 305214720#0 305214720#1 880435926 76421407 539766954 733428789 76421585 76844000#0 76844000#1 76844000#2 76841092 76841090#0 76841090#1 538861665#0 538861665#1 456377569 1382206874 435296020 1382206873 600507750#0 600507750#1 456377577#0 456377577#1 397100321 397100322 571851448#0 571851448#1 313469985 600025689 571851446 76421484 76422565 600025688 456369683#0 456369683#1 76422082 76421472 76421934 76421897#0 76421897#1 600025693 76422616 600025692 76421042 600025691 188954423 571851445"/>
    </vehicle>
    <vehicle id="13" depart="11.70">
        <route edges="76728667#3 538861662#0 538861662#1 538861662#2 76728489#0 76728489#1 76728489#2 76728489#3 76728489#4 76728489#5 76421101 313466010 313466011#0 313466011#1 600507746 130126760 397100633#0 397100633#1 397100633#2 -76729438 76844037 587737498 520408277 76421025 880435927 76420937#0 76420937#1 490908992#0 490908992#1 432365103 305214700 1328264313#0 1328264313#1 1328264313#2 436784653 1267602298 305941312#0 305941312#1 305941312#2 1266755566 1442147127 538113728 1016688285#0 1016688285#1 1016688285#2 130331839#0 130331839#1 130331839#2 130298110 130298111#0 130298111#1 538113727#0 538113727#1 538113727#2 538113727#3 538113727#4 538113727#5 538113727#6 726999887#0 726999887#1"/>
    </vehicle>
    <vehicle id="14" depart="12.60">
        <route edges="76421386#0 76421386#1 -76421216 -76421229#1 -76421229#0 76421703 76422093#0 76422093#1 76421472 76421934 76421897#0 76421897#1 600025693 76422616 600025692 76421042 600025691 188954423 571851445 600025690 531821900 571851447#0 571851447#1 532842241 456377578#0 456377578#1 193732659 188954426 456377576#0 456377576#1 188954424 76421151 76421088#0 76421088#1 600507748 456377580 397100629 520408275 76843213#0 76843213#1 397100633#2 -76729438 76844037 587737498 520408277 76421025 880435927 76420937#0 76420937#1 490908992#0 490908992#1 432365103 305214700 1328264313#0 1328264313#1 1328264313#2 436784653 1267602298 305941312#0 305941312#1 305941312#2 1266755566 1442147127 538113728 1016688285#0 1016688285#1 1016688285#2 1015917694 1015917699#0 1015917699#1 1015917699#2 1283505593 -130298108#1 -130298108#0 -1283505591 -76421261#3 -76421261#2 -76421261#1 -76421261#0 -880435924#1 -880435924#0 -463644771#2 -463644771#1 -463644771#0 -264387279#5 -264387279#4 -264387279#3 -264387279#2 -264387279#1 -264387279#0 -637334959 -637334960 -463644772#1 -463644772#0"/>
    </vehicle>
    <vehicle id="15" depart="13.50">
        <route edges="-682982522#2 -682982522#1 -682982522#0 682982522#0 682982522#1 682982522#2 467420375 600507754#0 600507754#1 600507754#2 600507753 600507752 602687335 1148739405 1148739404 76843804#0 76843804#1 538382775 520380756#0 520380756#1 76841122#0 76841122#1 76843902#0 76843902#1 520408277 76421025 880435927 76420937#0 76420937#1 490908992#0 490908992#1 432365103 305214700 1328264313#0 1328264313#1 1328264313#2 436784653 1267602298 305941312#0 305941312#1 305941312#2 1266755566 1442147127 538113728 1016688285#0 1016688285#1 1016688285#2 1015917694 1015917699#0 1015917699#1 1015917699#2 1283505593 -130298108#1 -130298108#0 -924632856#1 -924632856#0"/>
    </vehicle>
    <vehicle id="16" depart="14.40">
        <route edges="753597130#0 753597130#1 137413788 -137413788 753597131#0 753597131#1 -753597132 -600025671 -456373012#1 -456373012#0 456570278#0 456570278#1 600025673 130335831 538113725#0 538113725#1 538113725#2 538113725#3 538113725#4 538113725#5 538113725#6 538113725#7 538113725#8 538113725#9 538113725#10 264387278 463644772#0 463644772#1 637334960 637334959 264387279#0 264387279#1 264387279#2 264387279#3 264387279#4 264387279#5 463644771#0 463644771#1 463644771#2 880435924#0 880435924#1 76421261#0 76421261#1 76421261#2 76421261#3 1283505591 -924632856#1 -924632856#0 -749667989#5 -749667989#4 -749667989#3 -749667989#2 -749667989#1 -749667989#0 749667991#0 749667991#1 749667991#2 1328264314 1283505594 490908991#0 490908991#1 305214720#0 305214720#1 880435926 76421407 539766954 587737499 76421351#0 76421351#1 76421351#2 76421351#3 520408275 600507747 397100632#0 397100632#1 397100632#2 600924754 463590451 456557762#0 456557762#1 397100634#0 397100634#1 397100634#2 397100634#3 397100634#4 475917821 456557758#0 456557758#1 456557758#2 300680024 456557754#0 456557754#1 300680025#0"/>
    </vehicle>
    <vehicle id="17" depart="15.30">
        <route edges="76421007#2 76421007#3 76421007#4 76421007#5 187875610 -76421107 76421107 -187875610 -76421007#5 -76421007#4 -76421007#3 -76421007#2 -76421007#1 -76421007#0 -638848922#3 -638848922#2 -638848922#1 -638848922#0 -432365101 432365101 638848922#0 638848922#1 638848922#2 638848922#3"/>
    </vehicle>
    <vehicle id="18" depart="16.20">
        <route edges="-76422398#2 -76422398#1 -76422398#0 726999887#0 726999887#1 727563622#0 727563622#1 76421201#0 76421201#1 76421201#2 1266773279 1266773278#0 1266773278#1 1266773282 1266773281 637334960 637334959 264387279#0 264387279#1 264387279#2 264387279#3 264387279#4 264387279#5 463644771#0 463644771#1 463644771#2 880435924#0 880435924#1 76421261#0 76421261#1 76421261#2 76421261#3 1283505591 130298108#0 130298108#1 1015917690 1283505592#0 1283505592#1 1267602304 1016688284 1015917698 1267602299 1302553384#0 1302553384#1 1302553384#2 1300505855 76422139#0"/>
    </vehicle>
    <vehicle id="19" depart="17.10">
        <route edges="-76422252#0 -76421320#2 -76421320#1 -76421320#0 -76422419#4 -76422419#3 -76422419#2 -76422419#1 -76422419#0 -76421255#1 -76421255#0 -76422291 -76421216 -76421229#1 -76421229#0 76421703 76422093#0 76422093#1 76421472 76421934 76421897#0 76421897#1 600025693 76422616 600025692 76421042 600025691 188954423 571851445 600025690 531821900 571851447#0 571851447#1 532842241 456377578#0 456377578#1 193732659 188954426 456377576#0 456377576#1 188954424 76421151 76421088#0 76421088#1 600507748 456377580 397100629 520408275 76843213#0 76843213#1 397100633#2 -76729438 76844037 587737498 520408277 76421025 880435927 76420937#0 76420937#1 490908992#0 490908992#1 432365103 305214700 1328264313#0 1328264313#1 1328264313#2 436784653 1267602298 305941312#0"/>
    </vehicle>
    <vehicle id="20" depart="18.00">
        <route edges="83749649#1 -538861667#3 -538861667#2 -538861667#1 -538861667#0 538861667#0 538861667#1 538861667#2 538861667#3 8919535#0 8919535#1 76730389 313450662 504516028#0 504516028#1 435297112 76729582#0 76729582#1 76728618 76729772 76728385#0 76728385#1 538382775 520380756#0 520380756#1 76841122#0 76841122#1 76843902#0 76843902#1 520408277 76421025 880435927 76420937#0 76420937#1"/>
    </vehicle>
    <vehicle id="21" depart="18.90">
        <route edges="76729042#2 76729042#3 300679865#0 300679865#1 300679865#2 76728417 76730629 300679672#0 300679672#1 300679672#2 -300679672#2 -300679672#1 -300679672#0 -76730629 -76728417 -300679865#2 -300679865#1 -300679865#0 538861662#0 538861662#1 538861662#2 76728489#0 76728489#1 76728489#2 76729795#0 76729795#1 -456557766#1 -456557766#0 -600924753 -600924752#1 -600924752#0 -505862602 -727581189 -600924751#1 -600924751#0 -76728456#3 -76728456#2 -76728456#1 -76728456#0 -538362517 130128607 505862603#0 505862603#1 1148739403 364123279 467420374#0 467420374#1 467420374#2 467420372#0 467420372#1 467420372#2 600507759 600507758#0 -76509576#2 -76509576#1 -76509576#0 76509576#0"/>
    </vehicle>
    <vehicle id="22" depart="19.80">
        <route edges="-76729328#1 76729095#0 682982522#0 682982522#1 682982522#2 467420375 600507754#0 600507754#1 600507754#2 600507753 600507752 602687335 1148739405 1148739404 76843804#0 76843804#1 538382775 520380756#0 520380756#1 76841122#0 76841122#1 76843902#0 76843902#1 520408277 76421025 880435927 76420937#0 76420937#1 490908992#0 490908992#1 432365103 305214700 1328264313#0 1328264313#1 1328264313#2 436784653 1267602298 305941312#0 305941312#1 305941312#2 1266755566 1442147127 538113728 1016688285#0 1016688285#1 1016688285#2 130331839#0 130331839#1 130331839#2 130298110 130298111#0 130298111#1 538113727#0 538113727#1 538113727#2 538113727#3 538113727#4 538113727#5 538113727#6 76422398#0 76422398#1 76422398#2 76422398#3 76422398#4 76422398#5 76422398#6 463836610 301043956#0 301043956#1 587750051 301043954#0 301043954#1 301043954#2 301043954#3 374618933 600025672#0 600025672#1 -600025672#1 -600025672#0 -374618933 -301043954#3 -301043954#2 -301043954#1 -301043954#0 -587750051 -301043956#1 -301043956#0"/>
    </vehicle>
    <vehicle id="23" depart="20.70">
        <route edges="130207184 -130207184 -130207187 -7939211#2 -7939211#1 -7939211#0 -538861666#1 7939295#0 7939295#1 7939295#2 7939295#3 7939295#4 7939295#5 -7939295#5 -7939295#4 -7939295#3 -7939295#2"/>
    </vehicle>
    <vehicle id="24" depart="21.60">
        <route edges="76421088#0 76421088#1 600507748 456377580 397100629"/>
    </vehicle>
    <vehicle id="25" depart="22.50">
        <route edges="76842014#1 456377574 435296019 76730389 313450662 504516028#0 504516028#1 435297112 76729582#0 76729582#1 76728618 76729772 76728385#0 76728385#1 538382775 520380756#0 520380756#1 76841122#0 76841122#1 76843902#0 76843902#1 520408277 76421025 880435927 76420937#0 76420937#1 490908992#0 490908992#1 432365103 305214700 1328264313#0 1328264313#1 1328264313#2 436784653 1267602298 305941312#0 305941312#1 305941312#2 1266755566 1442147127 538113728 1016688285#0 1016688285#1 1016688285#2 130331839#0 130331839#1 130331839#2 130298110 130298111#0 130298111#1 538113727#0 538113727#1 538113727#2 538113727#3 538113727#4 538113727#5 538113727#6 76422398#0 76422398#1 76422398#2 76422398#3 76422398#4 76422398#5 76422398#6 463836610 301043956#0 301043956#1 587750051 301043954#0 301043954#1 301043954#2 301043954#3 374618933 600025672#0 600025672#1 -600025673 -456570278#1 -456570278#0 456570278#0 456570278#1"/>
    </vehicle>
    <vehicle id="26" depart="23.40">
        <route edges="571851447#1 532842241 456377578#0 456377578#1 193732659 288832979#0 288832979#1 456377574 83749649#0 83749649#1 -538861667#3 -538861667#2 -538861667#1 -538861667#0 -7939295#5 -7939295#4 -7939295#3 -7939295#2 -7939295#1 -7939295#0 538861666#1 7939211#0 7939211#1 7939211#2 130207187 130207184 -130207184 -130207187 -7939211#2 -7939211#1 -7939211#0"/>
    </vehicle>
    <vehicle id="27" depart="24.30">
        <route edges="397100322 571851448#0 571851448#1 313469985 600025689 571851446 76421484 76422565 600025688 456369683#0 456369683#1 76422082 76421472 76421934 76421897#0 76421897#1 600025693 76422616 600025692 76421042 600025691 188954423 571851445 600025690 531821900 571851447#0 571851447#1 532842241 456377578#0 456377578#1 193732659 288832979#0 288832979#1 456377574 435296019 76730389 313450662 504516028#0 504516028#1 435297112 600507760 313451318 1322657244 364123279 467420374#0 467420374#1 467420374#2 -682982522#2 -682982522#1 -682982522#0 -76729095#0"/>
    </vehicle>
    <vehicle id="28" depart="25.20">
        <route edges="924632856#1 -924632856#1 -924632856#0 -749667989#5 -749667989#4 -749667989#3 -749667989#2 -749667989#1 -749667989#0 749667991#0 749667991#1 749667991#2 1328264314 1283505594 490908991#0 490908991#1 305214720#0 305214720#1 880435926 76421407 539766954 733428789 76421585 76844000#0 76844000#1 76844000#2 76841092 76841090#0 76841090#1 538861665#0 538861665#1 456377569 1382206874 435296020 1382206873 600507750#0 600507750#1 456377577#0 456377577#1 397100321 188954425 456377575#0 456377575#1 188954427 532842240"/>
    </vehicle>
    <vehicle id="29" depart="26.10">
        <route edges="-638848922#0 490908992#0 490908992#1 432365103 305214700 1328264313#0 1328264313#1 1328264313#2 436784653 1267602298 305941312#0 305941312#1 305941312#2 1266755566 1442147127 538113728 1016688285#0 1016688285#1 1016688285#2 1015917694 1015917699#0 1015917699#1 1015917699#2 1283505593 -130298108#1 -130298108#0 -1283505591 -76421261#3 -76421261#2 -76421261#1 -76421261#0 -880435924#1 -880435924#0 -463644771#2 -463644771#1 -463644771#0 -264387279#5 -264387279#4 -264387279#3 -264387279#2 -264387279#1 -264387279#0 -637334959 -637334960 -463644772#1"/>
    </vehicle>
    <vehicle id="30" depart="27.00">
        <route edges="-749667991#0 749667989#0 749667989#1 749667989#2 749667989#3"/>
    </vehicle>
    <vehicle id="31" depart="27.90">
        <route edges="-538113725#3 -538113725#2 -538113725#1 -538113725#0 -130335831 130335831 538113725#0 538113725#1 538113725#2 538113725#3 538113725#4 538113725#5 538113725#6 538113725#7 538113725#8 538113725#9 538113725#10 264387278 463644772#0 463644772#1 637334960 637334959 264387279#0 264387279#1 264387279#2 264387279#3 264387279#4 264387279#5 463644771#0 463644771#1 463644771#2 880435924#0 880435924#1 76421261#0 76421261#1 76421261#2 76421261#3 1283505591 130298108#0 130298108#1 1015917690 1283505592#0 1283505592#1 1267602304 1016688284 1015917698 1267602299 1302553384#0 1302553384#1 1302553384#2 1300505855 436784653 1267602298 305941312#0 305941312#1 305941312#2"/>
    </vehicle>
    <vehicle id="32" depart="28.80">
        <route edges="924632856#0 924632856#1 130298108#0 130298108#1 1015917690 1283505592#0 1283505592#1 1267602304 1016688284 1016688283 1016688285#0 1016688285#1 1016688285#2 130331839#0 130331839#1 130331839#2 130298110 130298111#0 130298111#1 538113727#0 538113727#1 538113727#2 538113727#3"/>
    </vehicle>
    <vehicle id="33" depart="29.70">
        <route edges="-130335831 130335831 538113725#0 538113725#1 538113725#2 538113725#3 538113725#4 538113725#5 538113725#6 538113725#7 538113725#8 538113725#9 538113725#10 264387278 463644772#0 463644772#1 637334960 637334959 264387279#0 264387279#1 264387279#2 264387279#3 264387279#4 264387279#5 463644771#0 463644771#1 463644771#2 880435924#0 880435924#1 76421261#0 76421261#1 76421261#2 76421261#3 1283505591 -924632856#1 -924632856#0 -749667989#5 -749667989#4 -749667989#3 -749667989#2 -749667989#1 -749667989#0 749667991#0 749667991#1 749667991#2 1328264314 1283505594 490908991#0 490908991#1 305214720#0 305214720#1 880435926 76421407 539766954 733428789 76421585"/>
    </vehicle>
    <vehicle id="34" depart="30.60">
        <route edges="-749667991#2 -749667991#1 -749667991#0 749667989#0 749667989#1 749667989#2 749667989#3 749667989#4 749667989#5 924632856#0 924632856#1 -924632856#1 -924632856#0 -749667989#5 -749667989#4 -749667989#3 -749667989#2 -749667989#1 -749667989#0 749667991#0 749667991#1 749667991#2 1328264314 1283505594 490908991#0 490908991#1 305214720#0 305214720#1 880435926 76421407 539766954 733428789 76421585 76844000#0 76844000#1 76844000#2 76841092 76841090#0 76841090#1 538861665#0 538861665#1 456377569 1382206874 435296020 1382206873 600507750#0 600507750#1 456377577#0 456377577#1 397100321 397100322 571851448#0 571851448#1 313469985 600025689 571851446 76421484 76422565 600025688 456369683#0 456369683#1 76422082 76421472 76421934 76421897#0 76421897#1 600025693 76422616 600025692 76421042 600025691 188954423 571851445 600025690 531821900 571851447#0 571851447#1 532842241 456377578#0 456377578#1 193732659 188954426 456377576#0 456377576#1"/>
    </vehicle>
    <vehicle id="35" depart="31.50">
        <route edges="456557754#0 456557754#1 300680025#0 300680025#1 300680025#2 76728990#0 76728990#1 76728667#0 76728667#1 76728667#2 76728667#3 538861662#0 538861662#1 538861662#2 76728489#0 76728489#1 76728489#2 76729795#0 76729795#1 -456557766#1 -456557766#0 -600924753 -600924752#1 -600924752#0 -505862602 -727581189 -600924751#1 -600924751#0 -76728456#3 -76728456#2 -76728456#1 -76728456#0 -538362517 130128607 505862603#0 505862603#1 1148739403 364123279 467420374#0 467420374#1 467420374#2 -682982522#2 -682982522#1 -682982522#0 682982522#0 682982522#1 682982522#2 467420375 600507754#0 600507754#1 600507754#2 600507753 600507752 76844015#0 76844015#1"/>
    </vehicle>
    <vehicle id="36" depart="32.40">
        <route edges="1266773282 1266773281 637334960 637334959 264387279#0 264387279#1 264387279#2 264387279#3 264387279#4 264387279#5 463644771#0 463644771#1 463644771#2 880435924#0 880435924#1 76421261#0 76421261#1 76421261#2 76421261#3 1283505591 -924632856#1 -924632856#0 -749667989#5 -749667989#4 -749667989#3 -749667989#2 -749667989#1 -749667989#0 749667991#0 749667991#1 749667991#2 1328264314 1283505594 490908991#0 490908991#1 305214720#0 305214720#1 880435926 76421407 539766954 587737499 76421351#0 76421351#1 76421351#2 76421351#3 520408275 76843213#0 76843213#1 397100633#2 -76729438 76844037 587737498 520408277 76421025 880435927 76420937#0"/>
    </vehicle>
    <vehicle id="37" depart="33.30">
        <route edges="-1283505591 -76421261#3 -76421261#2 -76421261#1 -76421261#0 -880435924#1 -880435924#0 -463644771#2 -463644771#1 -463644771#0 -264387279#5 -264387279#4 -264387279#3 -264387279#2 -264387279#1 -264387279#0 -637334959 -637334960 -463644772#1 -463644772#0 -264387278 -538113725#10 -538113725#9 -538113725#8 -538113725#7 -538113725#6 -538113725#5 -538113725#4 -538113725#3 -538113725#2 -538113725#1 -538113725#0 -130335831 -600025673 130333575#0"/>
    </vehicle>
    <vehicle id="38" depart="34.20">
        <route edges="-264387279#2 -264387279#1 -264387279#0 -637334959 -637334960 637334960 637334959 264387279#0 264387279#1 264387279#2 264387279#3 264387279#4 264387279#5 463644771#0 463644771#1 463644771#2 880435924#0 880435924#1 76421261#0 76421261#1 76421261#2 76421261#3 1283505591 130298108#0 130298108#1 1015917690 1283505592#0 1283505592#1 1267602304 1016688284 1015917698 1267602299 76843164#0 76843164#1 76843164#2 76843164#3"/>
    </vehicle>
    <vehicle id="39" depart="35.10">
        <route edges="1297487418 1297487419 -76422419#2 -76422419#1 -76422419#0 -76421255#1 -76421255#0 -76422291 -76421216 -76421229#1 -76421229#0 76421703 76422093#0 76422093#1 76421472 76421934 76421897#0 76421897#1 600025693 76422616 600025692 76421042 600025691 188954423 571851445 600025690 531821900 571851447#0 571851447#1 532842241 456377578#0 456377578#1 193732659 188954426 456377576#0 456377576#1 188954424 76421151 76421088#0 76421088#1 600507748 456377580 397100629 520408275 76843213#0 76843213#1 397100633#2 -76729438 76844037 587737498 520408277 76421025 880435927 76420937#0 76420937#1 490908992#0 490908992#1 432365103 305214700 1328264313#0 1328264313#1 1328264313#2 436784653 1267602298 305941312#0 305941312#1 305941312#2 1266755566 1442147127 538113728 1016688285#0 1016688285#1 1016688285#2 1015917694 1015917699#0 1015917699#1 1015917699#2 1283505593 -130298108#1 -130298108#0 -1283505591 -76421261#3 -76421261#2 -76421261#1 -76421261#0 -880435924#1 -880435924#0 -463644771#2 -463644771#1 -463644771#0 -264387279#5 -264387279#4 -264387279#3 -264387279#2 -264387279#1 -264387279#0 -637334959 -637334960 -463644772#1 -463644772#0 -264387278 -538113725#10 -538113725#9 -538113725#8 -538113725#7 -538113725#6 -538113725#5 -538113725#4 -538113725#3 -538113725#2 -538113725#1"/>
    </vehicle>
    <vehicle id="40" depart="36.00">
        <route edges="76729582#0 76729582#1 76728618 76729772 76728385#0 76728385#1 538382775 520380756#0 520380756#1 76841122#0 76841122#1 76843902#0 76843902#1 520408277 76421025 880435927 76420937#0 76420937#1 490908992#0 490908992#1 432365103 305214700 1328264313#0 1328264313#1 1328264313#2 436784653 1267602298 305214699 1300505854#0 1300505854#1 1300505854#2 432365102 1328264314 1283505594 490908991#0 490908991#1 305214720#0 305214720#1 880435926 76421407 539766954 733428789 76421585 76843951"/>
    </vehicle>
    <vehicle id="41" depart="36.90">
        <route edges="-600924752#0 -505862602 -727581189 -600924751#1 -600924751#0 -76728456#3 -76728456#2 -76728456#1 -76728456#0 -538362517 130128607 76843851#0 76843851#1 76843804#0 76843804#1 538382775 520380756#0 520380756#1 76841122#0 76841122#1 76843902#0 76843902#1 520408277 76421025 880435927 76420937#0 76420937#1 490908992#0 490908992#1 432365103 305214700 1328264313#0 1328264313#1 1328264313#2 436784653 1267602298 305214699 1300505854#0 1300505854#1 1300505854#2 432365102 1328264314 1283505594 490908991#0"/>
    </vehicle>
    <vehicle id="42" depart="37.80">