<?xml version="1.0" encoding="UTF-8"?>

<!-- generated on 2026-02-17 13:55:55.027020 by Eclipse SUMO randomTrips.py v1_26_0+0000-fa7df22d7f1
<configuration>
    <net-file value="ottawa.net.xml"/>
    <route-file value="ottawa.rou.xml"/>
    <end value="450.0"/>
    <period value="0.9"/>
</configuration>
-->

<routes xmlns:xsi="http://www.w3.org/2001/XMLSchema-instance" xsi:noNamespaceSchemaLocation="http://sumo.dlr.de/xsd/routes_file.xsd">
    <trip id="0" depart="0.00" from="753597132" to="-300679865#0"/>
    <trip id="1" depart="0.90" from="-7939295#4" to="-76729328#0"/>
    <trip id="2" depart="1.80" from="76729891" to="-637334960"/>
    <trip id="3" depart="2.70" from="435297113#1" to="-301043954#2"/>
    <trip id="4" depart="3.60" from="-300679865#0" to="-76728456#0"/>
    <trip id="5" depart="4.50" from="76421007#3" to="538861666#0"/>
    <trip id="6" depart="5.40" from="76728489#1" to="-130298111#0"/>
    <trip id="7" depart="6.30" from="76728456#1" to="76421320#2"/>
    <trip id="8" depart="7.20" from="76844066#0" to="1382206873"/>
    <trip id="9" depart="8.10" from="-638848922#2" to="-682982522#2"/>
    <trip id="10" depart="9.00" from="76728456#3" to="76422139#1"/>
    <trip id="11" depart="9.90" from="538113727#5" to="7939295#5"/>
    <trip id="12" depart="10.80" from="305214699" to="571851445"/>
    <trip id="13" depart="11.70" from="76728667#3" to="726999887#1"/>
    <trip id="14" depart="12.60" from="76421386#0" to="-463644772#0"/>
    <trip id="15" depart="13.50" from="-682982522#2" to="-924632856#0"/>
    <trip id="16" depart="14.40" from="753597130#0" to="300680025#0"/>
    <trip id="17" depart="15.30" from="76421007#2" to="638848922#3"/>
    <trip id="18" depart="16.20" from="-76422398#2" to="76422139#0"/>
    <trip id="19" depart="17.10" from="-76422252#0" to="305941312#0"/>
    <trip id="20" depart="18.00" from="83749649#1" to="76420937#1"/>
    <trip id="21" depart="18.90" from="76729042#2" to="76509576#0"/>
    <trip id="22" depart="19.80" from="-76729328#1" to="-301043956#0"/>
    <trip id="23" depart="20.70" from="130207184" to="-7939295#2"/>
    <trip id="24" depart="21.60" from="76421088#0" to="397100629"/>
    <trip id="25" depart="22.50" from="76842014#1" to="456570278#1"/>
    <trip id="26" depart="23.40" from="571851447#1" to="-7939211#0"/>
    <trip id="27" depart="24.30" from="397100322" to="-76729095#0"/>
    <trip id="28" depart="25.20" from="924632856#1" to="532842240"/>
    <trip id="29" depart="26.10" from="-638848922#0" to="-463644772#1"/>
    <trip id="30" depart="27.00" from="-749667991#0" to="749667989#3"/>
    <trip id="31" depart="27.90" from="-538113725#3" to="305941312#2"/>
    <trip id="32" depart="28.80" from="924632856#0" to="538113727#3"/>
    <trip id="33" depart="29.70" from="-130335831" to="76421585"/>
    <trip id="34" depart="30.60" from="-749667991#2" to="456377576#1"/>
    <trip id="35" depart="31.50" from="456557754#0" to="76844015#1"/>
    <trip id="36" depart="32.40" from="1266773282" to="76420937#0"/>
    <trip id="37" depart="33.30" from="-1283505591" to="130333575#0"/>
    <trip id="38" depart="34.20" from="-264387279#2" to="76843164#3"/>
    <trip id="39" depart="35.10" from="1297487418" to="-538113725#1"/>
    <trip id="40" depart="36.00" from="76729582#0" to="76843951"/>
    <trip id="41" depart="36.90" from="-600924752#0" to="490908991#0"/>
    <trip id="42" depart="37.80" from="76422593#0" to="-76421255#1"/>
    <trip id="43" depart="38.70" from="463836610" to="538861667#3"/>
    <trip id="44" depart="39.60" from="538362517" to="76422139#1"/>
    <trip id="45" depart="40.50" from="-76728456#1" to="130207187"/>
    <trip id="46" depart="41.40" from="8919535#1" to="76421007#5"/>
    <trip id="47" depart="42.30" from="-76421132" to="-76729328#1"/>
    <trip id="48" depart="43.20" from="-76729328#2" to="-76729095#1"/>
    <trip id="49" depart="44.10" from="-538362517" to="749667991#0"/>
    <trip id="50" depart="45.00" from="-76729328#1" to="76841108#1"/>
    <trip id="51" depart="45.90" from="-682982518#1" to="456377574"/>
    <trip id="52" depart="46.80" from="76422082" to="76421240#1"/>
    <trip id="53" depart="47.70" from="83748346#4" to="-727581189"/>
    <trip id="54" depart="48.60" from="435297113#1" to="-924632856#1"/>
    <trip id="55" depart="49.50" from="924632863#1" to="76728990#0"/>
    <trip id="56" depart="50.40" from="7939295#2" to="76843164#0"/>
    <trip id="57" depart="51.30" from="76729095#2" to="-76422398#0"/>
    <trip id="58" depart="52.20" from="397100629" to="-538113725#10"/>
    <trip id="59" depart="53.10" from="305214699" to="83748346#5"/>
    <trip id="60" depart="54.00" from="456557754#1" to="435298645"/>
    <trip id="61" depart="54.90" from="76844066#0" to="8919535#1"/>
    <trip id="62" depart="55.80" from="-76421386#1" to="1267602304"/>
    <trip id="63" depart="56.70" from="7939295#1" to="600507750#0"/>
    <trip id="64" depart="57.60" from="538563924#0" to="76422419#0"/>
    <trip id="65" depart="58.50" from="-505862602" to="600507754#0"/>
    <trip id="66" depart="59.40" from="504516028#0" to="76729328#3"/>
    <trip id="67" depart="60.30" from="-600025672#0" to="-76509576#1"/>
    <trip id="68" depart="61.20" from="600507755#2" to="76421255#1"/>
    <trip id="69" depart="62.10" from="600507755#1" to="727563622#0"/>
    <trip id="70" depart="63.00" from="435296020" to="600507753"/>
    <trip id="71" depart="63.90" from="538113725#10" to="76843815#1"/>
    <trip id="72" depart="64.80" from="76421234#0" to="1283505592#1"/>
    <trip id="73" depart="65.70" from="130207187" to="76422419#4"/>
    <trip id="74" depart="66.60" from="-538861666#1" to="456570278#0"/>
    <trip id="75" depart="67.50" from="924632863#0" to="924632856#0"/>
    <trip id="76" depart="68.40" from="-76730629" to="76843804#1"/>
    <trip id="77" depart="69.30" from="76729598#1" to="76729598#1"/>
    <trip id="78" depart="70.20" from="76728902#1" to="76421407"/>
    <trip id="79" depart="71.10" from="638848922#2" to="83748346#7"/>
    <trip id="80" depart="72.00" from="76421042" to="-130298111#1"/>
    <trip id="81" depart="72.90" from="76421183#1" to="76843851#1"/>
    <trip id="82" depart="73.80" from="-76421261#1" to="-76421107"/>
    <trip id="83" depart="74.70" from="-749667989#4" to="571851446"/>
    <trip id="84" depart="75.60" from="-7939295#1" to="637334959"/>
    <trip id="85" depart="76.50" from="749667991#2" to="-7939211#1"/>
    <trip id="86" depart="77.40" from="471722137#1" to="76841108#1"/>
    <trip id="87" depart="78.30" from="76729095#0" to="-682982518#0"/>
    <trip id="88" depart="79.20" from="-130298108#0" to="76506477#1"/>
    <trip id="89" depart="80.10" from="753597131#0" to="-7939114#1"/>
    <trip id="90" depart="81.00" from="76841110" to="538861666#0"/>
    <trip id="91" depart="81.90" from="-76421311#2" to="-76421255#0"/>
    <trip id="92" depart="82.80" from="1297487419" to="76730629"/>
    <trip id="93" depart="83.70" from="397100633#1" to="727563622#1"/>
    <trip id="94" depart="84.60" from="-76421386#1" to="76843213#0"/>
    <trip id="95" depart="85.50" from="-300679672#1" to="76422282"/>
    <trip id="96" depart="86.40" from="1328264313#0" to="76843213#1"/>
    <trip id="97" depart="87.30" from="76728489#2" to="-7939295#1"/>
    <trip id="98" depart="88.20" from="456557762#1" to="1300505854#0"/>
    <trip id="99" depart="89.10" from="7939295#0" to="-924632856#1"/>
    <trip id="100" depart="90.00" from="76420937#1" to="397100633#0"/>
    <trip id="101" depart="90.90" from="83748346#1" to="538563924#0"/>
    <trip id="102" depart="91.80" from="76843876#1" to="-76421107"/>
    <trip id="103" depart="92.70" from="7939114#0" to="-7939295#0"/>
    <trip id="104" depart="93.60" from="-749667989#5" to="456377576#1"/>
    <trip id="105" depart="94.50" from="76422082" to="1302553384#1"/>
    <trip id="106" depart="95.40" from="602687335" to="532949495#0"/>
    <trip id="107" depart="96.30" from="305941312#1" to="600507747"/>
    <trip id="108" depart="97.20" from="300679672#2" to="-538861666#1"/>
    <trip id="109" depart="98.10" from="76421194#0" to="1328264313#2"/>
    <trip id="110" depart="99.00" from="130128607" to="76729095#3"/>
    <trip id="111" depart="99.90" from="397100632#0" to="1267602299"/>
    <trip id="112" depart="100.80" from="76843878#0" to="76421261#1"/>
    <trip id="113" depart="101.70" from="1267602304" to="538861667#1"/>
    <trip id="114" depart="102.60" from="-1283505591" to="1148739405"/>
    <trip id="115" depart="103.50" from="456369683#0" to="600507750#1"/>
    <trip id="116" depart="104.40" from="76421042" to="463644771#0"/>
    <trip id="117" depart="105.30" from="463644772#0" to="76841090#1"/>
    <trip id="118" depart="106.20" from="-600924751#1" to="538113725#0"/>
    <trip id="119" depart="107.10" from="749667991#1" to="137413788"/>
    <trip id="120" depart="108.00" from="76421234#1" to="-76729328#1"/>
    <trip id="121" depart="108.90" from="-76728417" to="-300679865#0"/>
    <trip id="122" depart="109.80" from="425564583#1" to="749667989#5"/>
    <trip id="123" depart="110.70" from="490908992#0" to="-76729435"/>
    <trip id="124" depart="111.60" from="76421088#1" to="-130298110"/>
    <trip id="125" depart="112.50" from="76422419#0" to="76506477#0"/>
    <trip id="126" depart="113.40" from="-749667989#3" to="456369683#1"/>
    <trip id="127" depart="114.30" from="-76729491" to="76729158"/>
    <trip id="128" depart="115.20" from="456557758#0" to="76728456#0"/>
    <trip id="129" depart="116.10" from="76421201#2" to="83748346#7"/>
    <trip id="130" depart="117.00" from="600507755#2" to="76844000#0"/>
    <trip id="131" depart="117.90" from="76729891" to="682982518#1"/>
    <trip id="132" depart="118.80" from="76422593#0" to="538113725#5"/>
    <trip id="133" depart="119.70" from="749667989#0" to="-80675323#3"/>
    <trip id="134" depart="120.60" from="-587750051" to="1148739404"/>
    <trip id="135" depart="121.50" from="-7939295#1" to="130298111#1"/>
    <trip id="136" depart="122.40" from="-76729328#3" to="76421311#3"/>
    <trip id="137" depart="123.30" from="76421407" to="-538113725#6"/>
    <trip id="138" depart="124.20" from="397100634#0" to="538861664"/>
    <trip id="139" depart="125.10" from="432365102" to="-76728535#4"/>
    <trip id="140" depart="126.00" from="435297112" to="76841108#1"/>
    <trip id="141" depart="126.90" from="600507749" to="76421320#0"/>
    <trip id="142" depart="127.80" from="305214720#0" to="-130298110"/>
    <trip id="143" depart="128.70" from="193732659" to="76422443"/>
    <trip id="144" depart="129.60" from="76729328#3" to="76844015#0"/>
    <trip id="145" depart="130.50" from="435296020" to="76422398#6"/>
    <trip id="146" depart="131.40" from="456377574" to="-301043954#1"/>
    <trip id="147" depart="132.30" from="1328264315#0" to="76421261#3"/>
    <trip id="148" depart="133.20" from="463618790#1" to="-76421255#0"/>
    <trip id="149" depart="134.10" from="727563622#0" to="-300679865#2"/>
    <trip id="150" depart="135.00" from="313466011#1" to="600025671"/>
    <trip id="151" depart="135.90" from="-463836610" to="305941312#0"/>
    <trip id="152" depart="136.80" from="-264387279#2" to="538861662#1"/>
    <trip id="153" depart="137.70" from="924632863#1" to="264387279#0"/>
    <trip id="154" depart="138.60" from="76421007#4" to="76510434"/>
    <trip id="155" depart="139.50" from="76844000#1" to="-76728456#1"/>
    <trip id="156" depart="140.40" from="-76421229#0" to="76421229#1"/>
    <trip id="157" depart="141.30" from="587737498" to="-76729042#2"/>
    <trip id="158" depart="142.20" from="76422398#4" to="-76421007#5"/>
    <trip id="159" depart="143.10" from="-749667989#5" to="-300679865#1"/>
    <trip id="160" depart="144.00" from="1300505855" to="76421261#1"/>
    <trip id="161" depart="144.90" from="76844066#1" to="397100632#0"/>
    <trip id="162" depart="145.80" from="76421484" to="-600025671"/>
    <trip id="163" depart="146.70" from="76421280" to="749667989#3"/>
    <trip id="164" depart="147.60" from="76729328#0" to="600924753"/>
    <trip id="165" depart="148.50" from="-76421132" to="83748346#3"/>
    <trip id="166" depart="149.40" from="76509576#2" to="193732659"/>
    <trip id="167" depart="150.30" from="505862603#0" to="187875610"/>
    <trip id="168" depart="151.20" from="-749667989#2" to="76844066#1"/>
    <trip id="169" depart="152.10" from="76421422#0" to="456377577#0"/>
    <trip id="170" depart="153.00" from="76422139#2" to="7939211#0"/>
    <trip id="171" depart="153.90" from="-7939211#2" to="76728489#3"/>
    <trip id="172" depart="154.80" from="538113727#6" to="475917821"/>
    <trip id="173" depart="155.70" from="456377569" to="76422139#2"/>
    <trip id="174" depart="156.60" from="-7939211#0" to="76729328#2"/>
    <trip id="175" depart="157.50" from="456570278#1" to="673382348"/>
    <trip id="176" depart="158.40" from="305214699" to="-301043954#1"/>
    <trip id="177" depart="159.30" from="76729328#0" to="-76422593#1"/>
    <trip id="178" depart="160.20" from="1355835880" to="76729640#0"/>
    <trip id="179" depart="161.10" from="76421351#0" to="-880435924#0"/>
    <trip id="180" depart="162.00" from="-130331839#2" to="76843962#0"/>
    <trip id="181" depart="162.90" from="76421280" to="76421007#1"/>
    <trip id="182" depart="163.80" from="-638848922#2" to="-76729095#2"/>
    <trip id="183" depart="164.70" from="76421286" to="1300505854#1"/>
    <trip id="184" depart="165.60" from="600507747" to="467420371#2"/>
    <trip id="185" depart="166.50" from="538113725#9" to="456369683#1"/>
    <trip id="186" depart="167.40" from="76422398#2" to="1328264314"/>
    <trip id="187" depart="168.30" from="76421351#2" to="-7939295#5"/>
    <trip id="188" depart="169.20" from="-76422593#2" to="-76729042#1"/>
    <trip id="189" depart="170.10" from="467420374#2" to="76421897#1"/>
    <trip id="190" depart="171.00" from="80675323#2" to="538113725#9"/>
    <trip id="191" depart="171.90" from="-924632856#0" to="-749667989#2"/>
    <trip id="192" depart="172.80" from="-76422419#3" to="-264387278"/>
    <trip id="193" depart="173.70" from="538113727#2" to="-80675323#2"/>
    <trip id="194" depart="174.60" from="80675323#0" to="571851446"/>
    <trip id="195" depart="175.50" from="463618790#3" to="456557723#0"/>
    <trip id="196" depart="176.40" from="76843878#1" to="467420374#1"/>
    <trip id="197" depart="177.30" from="-538861667#0" to="749667989#5"/>
    <trip id="198" depart="178.20" from="571851448#1" to="1297487419"/>
    <trip id="199" depart="179.10" from="76422565" to="638848922#0"/>
    <trip id="200" depart="180.00" from="76728258#2" to="-76729328#2"/>
    <trip id="201" depart="180.90" from="538113725#10" to="456557758#0"/>
    <trip id="202" depart="181.80" from="880435924#0" to="1300505854#0"/>
    <trip id="203" depart="182.70" from="726999887#1" to="638848922#3"/>
    <trip id="204" depart="183.60" from="76422291" to="76843951"/>
    <trip id="205" depart="184.50" from="-76422398#4" to="-587750051"/>
    <trip id="206" depart="185.40" from="-130207187" to="456557758#0"/>
    <trip id="207" depart="186.30" from="600507755#1" to="1266773278#1"/>
    <trip id="208" depart="187.20" from="76421351#2" to="456557762#0"/>
    <trip id="209" depart="188.10" from="76728258#0" to="749667989#0"/>
    <trip id="210" depart="189.00" from="76728667#0" to="-538861667#1"/>
    <trip id="211" depart="189.90" from="-76422291" to="1300505855"/>
    <trip id="212" depart="190.80" from="76422398#5" to="600025688"/>
    <trip id="213" depart="191.70" from="1015917699#1" to="-76421234#1"/>
    <trip id="214" depart="192.60" from="76843902#0" to="505862603#1"/>
    <trip id="215" depart="193.50" from="490908991#1" to="-600924751#0"/>
    <trip id="216" depart="194.40" from="-456373013" to="456377575#0"/>
    <trip id="217" depart="195.30" from="76844015#0" to="924632863#1"/>
    <trip id="218" depart="196.20" from="76421234#1" to="-7939295#4"/>
    <trip id="219" depart="197.10" from="463644771#0" to="76421025"/>
    <trip id="220" depart="198.00" from="76842015#0" to="-76422593#1"/>
    <trip id="221" depart="198.90" from="600507750#0" to="753597130#1"/>
    <trip id="222" depart="199.80" from="486467429#1" to="-638848922#3"/>
    <trip id="223" depart="200.70" from="130333575#1" to="76421311#3"/>
    <trip id="224" depart="201.60" from="1015917699#1" to="76843902#0"/>
    <trip id="225" depart="202.50" from="76728489#5" to="538861667#3"/>
    <trip id="226" depart="203.40" from="456557754#1" to="1302553384#1"/>
    <trip id="227" depart="204.30" from="130298111#0" to="7939295#2"/>
    <trip id="228" depart="205.20" from="397100632#2" to="538113725#0"/>
    <trip id="229" depart="206.10" from="83749649#0" to="76421123"/>
    <trip id="230" depart="207.00" from="538563924#1" to="435296020"/>
    <trip id="231" depart="207.90" from="-76509576#1" to="300679865#0"/>
    <trip id="232" depart="208.80" from="538861665#0" to="76843164#2"/>
    <trip id="233" depart="209.70" from="-76421132" to="7939295#5"/>
    <trip id="234" depart="210.60" from="538861666#1" to="-682982518#1"/>
    <trip id="235" depart="211.50" from="880435926" to="76842008#1"/>
    <trip id="236" depart="212.40" from="456557766#0" to="-76421132"/>
    <trip id="237" depart="213.30" from="76728902#0" to="505862602"/>
    <trip id="238" depart="214.20" from="76421522#1" to="532842240"/>
    <trip id="239" depart="215.10" from="83748346#0" to="-76729435"/>
    <trip id="240" depart="216.00" from="538861666#0" to="313451318"/>
    <trip id="241" depart="216.90" from="76843140#0" to="531821900"/>
    <trip id="242" depart="217.80" from="432365101" to="76843815#0"/>
    <trip id="243" depart="218.70" from="520380756#0" to="76728618"/>
    <trip id="244" depart="219.60" from="-924632856#0" to="1283505592#0"/>
    <trip id="245" depart="220.50" from="600507751" to="924632863#0"/>
    <trip id="246" depart="221.40" from="538113728" to="188954426"/>
    <trip id="247" depart="222.30" from="538861666#1" to="538861665#0"/>
    <trip id="248" depart="223.20" from="456557754#1" to="130331839#1"/>
    <trip id="249" depart="224.10" from="-76509576#2" to="76421320#2"/>
    <trip id="250" depart="225.00" from="76422398#1" to="76421422#0"/>
    <trip id="251" depart="225.90" from="76728489#3" to="313466010"/>
    <trip id="252" depart="226.80" from="76421183#1" to="76728618"/>
    <trip id="253" depart="227.70" from="83748346#0" to="504516027"/>
    <trip id="254" depart="228.60" from="-432365101" to="520380756#1"/>
    <trip id="255" depart="229.50" from="600507754#0" to="76729438"/>
    <trip id="256" depart="230.40" from="538113725#4" to="456557766#1"/>
    <trip id="257" depart="231.30" from="463618790#3" to="7939295#1"/>
    <trip id="258" depart="232.20" from="1342130297" to="76421311#2"/>
    <trip id="259" depart="233.10" from="76421007#3" to="76729328#2"/>
    <trip id="260" depart="234.00" from="305214700" to="130298108#1"/>
    <trip id="261" depart="234.90" from="76421561#1" to="76422545#1"/>
    <trip id="262" depart="235.80" from="-538113725#8" to="749667991#1"/>
    <trip id="263" depart="236.70" from="76422398#3" to="456377576#0"/>
    <trip id="264" depart="237.60" from="-682982518#2" to="753597130#0"/>
    <trip id="265" depart="238.50" from="76421311#1" to="76841101"/>
    <trip id="266" depart="239.40" from="-463644771#1" to="76728374#1"/>
    <trip id="267" depart="240.30" from="1266755566" to="305214699"/>
    <trip id="268" depart="241.20" from="-76422398#0" to="-600025673"/>
    <trip id="269" depart="242.10" from="76729435" to="727563622#0"/>
    <trip id="270" depart="243.00" from="-130331839#1" to="76728456#3"/>
    <trip id="271" depart="243.90" from="76841092" to="76421261#2"/>
    <trip id="272" depart="244.80" from="753597132" to="456369683#0"/>
    <trip id="273" depart="245.70" from="-76728456#0" to="313465212#0"/>
    <trip id="274" depart="246.60" from="600025672#1" to="600025693"/>
    <trip id="275" depart="247.50" from="880435926" to="1267602298"/>
    <trip id="276" depart="248.40" from="83748343#0" to="76421123"/>
    <trip id="277" depart="249.30" from="-7939295#3" to="600025672#1"/>
    <trip id="278" depart="250.20" from="-463644772#1" to="638848922#0"/>
    <trip id="279" depart="251.10" from="1015917698" to="76728385#0"/>
    <trip id="280" depart="252.00" from="621457325" to="264387279#2"/>
    <trip id="281" depart="252.90" from="753597130#1" to="727563622#1"/>
    <trip id="282" depart="253.80" from="76421261#0" to="76421585"/>
    <trip id="283" depart="254.70" from="76421132" to="76729042#0"/>
    <trip id="284" depart="255.60" from="749667989#2" to="76841101"/>
    <trip id="285" depart="256.50" from="76421007#0" to="130126760"/>
    <trip id="286" depart="257.40" from="456377577#0" to="600507750#0"/>
    <trip id="287" depart="258.30" from="76422139#0" to="-638848922#2"/>
    <trip id="288" depart="259.20" from="1266773278#1" to="76422398#6"/>
    <trip id="289" depart="260.10" from="-76422398#6" to="-76421261#3"/>
    <trip id="290" depart="261.00" from="538362517" to="7939295#3"/>
    <trip id="291" depart="261.90" from="538113725#9" to="76842008#1"/>
    <trip id="292" depart="262.80" from="76728618" to="471722137#0"/>
    <trip id="293" depart="263.70" from="76728456#2" to="76422398#5"/>
    <trip id="294" depart="264.60" from="1342130297" to="-76421107"/>
    <trip id="295" depart="265.50" from="7939295#0" to="76728456#3"/>
    <trip id="296" depart="266.40" from="456557754#1" to="76421240#1"/>
    <trip id="297" depart="267.30" from="76421234#1" to="600507754#0"/>
    <trip id="298" depart="268.20" from="571851448#0" to="76842012#1"/>
    <trip id="299" depart="269.10" from="-682982518#1" to="76729772"/>
    <trip id="300" depart="270.00" from="-76421261#2" to="456557762#0"/>
    <trip id="301" depart="270.90" from="76421229#1" to="76422398#2"/>
    <trip id="302" depart="271.80" from="76843962#0" to="435298643#1"/>
    <trip id="303" depart="272.70" from="76422346#1" to="-76421561#0"/>
    <trip id="304" depart="273.60" from="432365101" to="-749667989#0"/>
    <trip id="305" depart="274.50" from="76844015#0" to="-301043956#1"/>
    <trip id="306" depart="275.40" from="300680025#1" to="456557746#0"/>
    <trip id="307" depart="276.30" from="538861662#1" to="80675323#3"/>
    <trip id="308" depart="277.20" from="264387279#4" to="397100632#2"/>
    <trip id="309" depart="278.10" from="76729095#1" to="456557762#1"/>
    <trip id="310" depart="279.00" from="600507759" to="-300679672#0"/>
    <trip id="311" depart="279.90" from="-76421229#0" to="600025671"/>
    <trip id="312" depart="280.80" from="-538113725#8" to="76422593#2"/>
    <trip id="313" depart="281.70" from="-76421311#1" to="76841090#1"/>
    <trip id="314" depart="282.60" from="76422398#2" to="467420372#2"/>
    <trip id="315" depart="283.50" from="-749667991#0" to="520408276#0"/>
    <trip id="316" depart="284.40" from="538113725#1" to="456570278#0"/>
    <trip id="317" depart="285.30" from="7939211#0" to="-538113725#3"/>
    <trip id="318" depart="286.20" from="467420372#0" to="397100633#2"/>
    <trip id="319" depart="287.10" from="-600025672#1" to="638848922#2"/>
    <trip id="320" depart="288.00" from="-538113725#5" to="-80675323#3"/>
    <trip id="321" depart="288.90" from="749667991#1" to="538861667#1"/>
    <trip id="322" depart="289.80" from="130331839#0" to="8919535#0"/>
    <trip id="323" depart="290.70" from="538113725#9" to="456557762#0"/>
    <trip id="324" depart="291.60" from="600924754" to="-749667989#0"/>
    <trip id="325" depart="292.50" from="76421351#1" to="76729328#3"/>
    <trip id="326" depart="293.40" from="76421007#5" to="76505979"/>
    <trip id="327" depart="294.30" from="1342130297" to="456557762#0"/>
    <trip id="328" depart="295.20" from="432365102" to="-682982522#0"/>
    <trip id="329" depart="296.10" from="435298644#1" to="76421201#0"/>
    <trip id="330" depart="297.00" from="76843140#1" to="-538113725#9"/>
    <trip id="331" depart="297.90" from="76728489#3" to="571851448#0"/>
    <trip id="332" depart="298.80" from="600507750#1" to="587750051"/>
    <trip id="333" depart="299.70" from="130333575#1" to="-76421229#1"/>
    <trip id="334" depart="300.60" from="264387278" to="76421201#1"/>
    <trip id="335" depart="301.50" from="76422398#6" to="76729419#0"/>
    <trip id="336" depart="302.40" from="600924751#0" to="264387279#1"/>
    <trip id="337" depart="303.30" from="76421088#1" to="-76729328#1"/>
    <trip id="338" depart="304.20" from="-749667989#5" to="76729095#1"/>
    <trip id="339" depart="305.10" from="600025679" to="76728489#2"/>
    <trip id="340" depart="306.00" from="76729091#1" to="80675323#0"/>
    <trip id="341" depart="306.90" from="76420943#0" to="-300679865#2"/>
    <trip id="342" depart="307.80" from="76843213#0" to="76728832"/>
    <trip id="343" depart="308.70" from="-7939114#1" to="-76422593#0"/>
    <trip id="344" depart="309.60" from="76421351#2" to="130126760"/>
    <trip id="345" depart="310.50" from="397100629" to="-76421311#0"/>
    <trip id="346" depart="311.40" from="749667991#1" to="-301043954#3"/>
    <trip id="347" depart="312.30" from="76422398#2" to="-76729042#0"/>
    <trip id="348" depart="313.20" from="435297112" to="187875610"/>
    <trip id="349" depart="314.10" from="300680025#0" to="76421585"/>
    <trip id="350" depart="315.00" from="76506967#1" to="600025673"/>
    <trip id="351" depart="315.90" from="76421240#0" to="-80675323#0"/>
    <trip id="352" depart="316.80" from="456377577#1" to="-80675323#1"/>
    <trip id="353" depart="317.70" from="456369683#0" to="1015917699#1"/>
    <trip id="354" depart="318.60" from="76421261#1" to="490908991#1"/>
    <trip id="355" depart="319.50" from="76421201#2" to="-463644772#0"/>
    <trip id="356" depart="320.40" from="313469985" to="600924752#1"/>
    <trip id="357" depart="321.30" from="-130298111#1" to="1283505593"/>
    <trip id="358" depart="322.20" from="-130298111#1" to="76422398#6"/>
    <trip id="359" depart="323.10" from="-76422398#6" to="305941312#1"/>
    <trip id="360" depart="324.00" from="76421351#3" to="505862603#1"/>
    <trip id="361" depart="324.90" from="76728902#1" to="76728489#1"/>
    <trip id="362" depart="325.80" from="-456570278#0" to="-264387279#3"/>
    <trip id="363" depart="326.70" from="600025689" to="600025692"/>
    <trip id="364" depart="327.60" from="-76421007#2" to="-264387279#5"/>
    <trip id="365" depart="328.50" from="130298111#1" to="76728456#0"/>
    <trip id="366" depart="329.40" from="76729091#0" to="-76729435"/>
    <trip id="367" depart="330.30" from="600507753" to="538113725#8"/>
    <trip id="368" depart="331.20" from="335818186" to="130128607"/>
    <trip id="369" depart="332.10" from="-76421007#1" to="532842241"/>
    <trip id="370" depart="333.00" from="76841113#1" to="264387278"/>
    <trip id="371" depart="333.90" from="-76421311#0" to="-76728417"/>
    <trip id="372" depart="334.80" from="587737499" to="753597131#0"/>
    <trip id="373" depart="335.70" from="749667989#1" to="-76421386#1"/>
    <trip id="374" depart="336.60" from="-538113725#7" to="456557723#1"/>
    <trip id="375" depart="337.50" from="1283505592#0" to="-80675323#3"/>
    <trip id="376" depart="338.40" from="1300505854#1" to="456557758#1"/>
    <trip id="377" depart="339.30" from="76730389" to="456557754#1"/>
    <trip id="378" depart="340.20" from="76728489#1" to="76421025"/>
    <trip id="379" depart="341.10" from="130298108#1" to="467420372#2"/>
    <trip id="380" depart="342.00" from="-76421311#4" to="-538113725#4"/>
    <trip id="381" depart="342.90" from="-749667989#0" to="76730629"/>
    <trip id="382" depart="343.80" from="505862602" to="-76422398#6"/>
    <trip id="383" depart="344.70" from="-76729438" to="456377578#0"/>
    <trip id="384" depart="345.60" from="456377576#0" to="538113725#7"/>
    <trip id="385" depart="346.50" from="1342130297" to="600924751#1"/>
    <trip id="386" depart="347.40" from="76728258#1" to="76421007#3"/>
    <trip id="387" depart="348.30" from="-538113725#5" to="-682982522#0"/>
    <trip id="388" depart="349.20" from="76421261#1" to="1015917699#2"/>
    <trip id="389" depart="350.10" from="76421585" to="76421107"/>
    <trip id="390" depart="351.00" from="1328264313#1" to="600507752"/>
    <trip id="391" depart="351.90" from="7939295#0" to="76421320#2"/>
    <trip id="392" depart="352.80" from="313466010" to="600924750"/>
    <trip id="393" depart="353.70" from="76843876#0" to="130128607"/>
    <trip id="394" depart="354.60" from="76728489#5" to="76421229#1"/>
    <trip id="395" depart="355.50" from="76421007#0" to="436784653"/>
    <trip id="396" depart="356.40" from="288832979#1" to="300679865#1"/>
    <trip id="397" depart="357.30" from="-538861667#3" to="76729095#0"/>
    <trip id="398" depart="358.20" from="-682982522#2" to="76506477#1"/>
    <trip id="399" depart="359.10" from="76728947#0" to="76729689#1"/>
    <trip id="400" depart="360.00" from="-456373012#0" to="1382206874"/>
    <trip id="401" depart="360.90" from="76422593#0" to="-76421261#2"/>
    <trip id="402" depart="361.80" from="301043956#0" to="-76422291"/>
    <trip id="403" depart="362.70" from="456377578#1" to="1148739403"/>
    <trip id="404" depart="363.60" from="76422398#5" to="456557754#0"/>
    <trip id="405" depart="364.50" from="538113727#2" to="130126760"/>
    <trip id="406" depart="365.40" from="76728489#0" to="463644772#1"/>
    <trip id="407" depart="366.30" from="456557766#0" to="1015917699#0"/>
    <trip id="408" depart="367.20" from="305214720#1" to="538113727#1"/>
    <trip id="409" depart="368.10" from="-727581189" to="76729095#1"/>
    <trip id="410" depart="369.00" from="76729328#1" to="1148739403"/>
    <trip id="411" depart="369.90" from="188954426" to="-300679865#2"/>
    <trip id="412" depart="370.80" from="301043954#2" to="-301043954#1"/>
    <trip id="413" depart="371.70" from="76843804#0" to="76729042#0"/>
    <trip id="414" depart="372.60" from="76728667#3" to="76421320#0"/>